<?xml version="1.0" encoding="UTF-8"?>

<!-- generated on 02/07/19 18:38:58 by Eclipse SUMO polyconvert Version 1.0.1
<configuration xmlns:xsi="http://www.w3.org/2001/XMLSchema-instance" xsi:noNamespaceSchemaLocation="http://sumo.dlr.de/xsd/polyconvertConfiguration.xsd">

    <input>
        <net-file value="map.net.xml"/>
        <osm-files value="map.osm"/>
        <type-file value="typemap.xml"/>
    </input>

    <output>
        <output-file value="map.poly.xml"/>
    </output>

    <processing>
        <poi-layer-offset value="5"/>
    </processing>

</configuration>
-->

<additional xmlns:xsi="http://www.w3.org/2001/XMLSchema-instance" xsi:noNamespaceSchemaLocation="http://sumo.dlr.de/xsd/additional_file.xsd">
    <location netOffset="-588184.63,-4519182.54" convBoundary="-1761.80,-4754.11,2054.27,4059.52" origBoundary="-73.975862,40.776293,-73.929372,40.855267" projParameter="+proj=utm +zone=18 +ellps=WGS84 +datum=WGS84 +units=m +no_defs"/>

    <poly id="108237819" type="landuse" color="194,194,130" fill="1" layer="-3.00" shape="852.651215,1283.234941 625.490588,1407.946433 604.463350,1419.495651 413.684438,1522.201554 465.929409,1617.466019 471.606192,1634.198999 468.788410,1642.736313 460.148123,1646.685040 449.743697,1646.560197 439.881135,1639.225244 424.311540,1616.966704 411.188459,1579.849092 393.915489,1586.403380 410.080660,1672.219694 415.425958,1679.333890 672.630426,1544.696609 693.264365,1533.575857 711.954107,1520.744184 918.565434,1407.611691 852.651215,1283.234941"/>
    <poly id="118524658" type="tourism" color="207,245,201" fill="1" layer="-2.00" shape="472.054677,574.926764 463.438903,579.541958 483.621030,596.426715 472.054677,574.926764"/>
    <poly id="254594896" type="leisure" color="207,245,201" fill="1" layer="-2.00" shape="836.333258,1113.847175 803.577403,1131.427541 832.194788,1184.353749 864.958917,1166.773612 836.333258,1113.847175"/>
    <poly id="271877784" type="building" color="255,230,230" fill="1" layer="-1.00" shape="888.644618,620.660429 896.174287,616.609961 896.692158,616.327539 897.838736,618.461939 897.049281,618.885419 897.857748,620.382900 900.064956,619.188234 906.075017,615.963247 899.442909,603.626131 896.021797,605.472315 896.359909,606.109233 891.835327,608.541652 889.236979,603.702948 893.761563,601.270528 894.000757,601.717512 897.430169,599.882530 891.004300,587.925394 883.576600,591.910481 885.416010,595.341120 877.716602,599.478373 875.877057,596.058837 868.364379,600.098428 874.625366,611.742686 881.272152,608.170073 883.985885,613.232214 877.339102,616.804825 883.435154,628.136234 890.591367,624.281105 888.644618,620.660429"/>
    <poly id="271877786" type="building" color="255,230,230" fill="1" layer="-1.00" shape="915.983784,671.306560 917.944695,670.253262 918.637505,671.549506 926.447290,667.347013 928.583539,671.336368 934.211695,668.306644 924.799876,650.795520 919.171711,653.825251 921.217485,657.624770 913.238104,661.902942 914.021801,663.355717 912.179748,664.343834 909.350140,659.102644 902.160085,662.968450 911.571940,680.479544 918.821413,676.581158 915.983784,671.306560"/>
    <poly id="271877787" type="building" color="255,230,230" fill="1" layer="-1.00" shape="928.583539,671.336368 930.678961,675.214206 922.784321,679.460082 923.592642,680.968667 921.725160,681.967578 918.821413,676.581158 911.571940,680.479544 920.851907,697.733705 927.931647,693.922101 925.176617,688.792828 927.298814,687.652657 928.057475,689.082926 935.765387,684.934727 937.761619,688.644834 943.491627,685.560833 934.211695,668.306644 928.583539,671.336368"/>
    <poly id="271877801" type="building" color="255,230,230" fill="1" layer="-1.00" shape="864.063147,613.391799 858.587838,616.334598 856.789515,612.993282 841.653930,621.126693 844.780221,626.948759 865.391240,615.861456 864.063147,613.391799"/>
    <poly id="271877803" type="building" color="255,230,230" fill="1" layer="-1.00" shape="861.400768,621.564464 866.876074,618.621667 865.391240,615.861456 844.780221,626.948759 847.947868,632.837940 863.083437,624.704543 861.400768,621.564464"/>
    <poly id="271877805" type="building" color="255,230,230" fill="1" layer="-1.00" shape="870.093634,624.566971 864.601332,627.520664 863.083437,624.704543 847.947868,632.837940 850.843252,638.224230 871.471249,627.126046 870.093634,624.566971"/>
    <poly id="271877807" type="building" color="255,230,230" fill="1" layer="-1.00" shape="850.843252,638.224230 853.878909,643.867569 869.014463,635.734183 867.463644,632.851049 872.955944,629.897359 871.471249,627.126046 850.843252,638.224230"/>
    <poly id="271877808" type="building" color="255,230,230" fill="1" layer="-1.00" shape="868.588712,640.269975 867.030551,640.095763 864.280189,641.572558 863.724582,642.887061 857.943714,645.992715 857.624612,645.877845 856.950271,645.847514 856.315016,646.073012 856.042631,646.280678 855.639744,646.819846 855.526375,647.129350 855.484485,647.806097 855.564932,648.129039 855.903713,648.710451 856.154016,648.935517 856.757687,649.231456 858.523072,652.505761 871.442985,645.566958 868.588712,640.269975"/>
    <poly id="271877812" type="building" color="255,230,230" fill="1" layer="-1.00" shape="871.442985,645.566958 858.523072,652.505761 861.261565,657.612603 874.181606,650.662703 871.442985,645.566958"/>
    <poly id="271877814" type="building" color="255,230,230" fill="1" layer="-1.00" shape="874.181606,650.662703 861.261565,657.612603 863.983857,662.663737 876.895460,655.713742 874.181606,650.662703"/>
    <poly id="271877816" type="building" color="255,230,230" fill="1" layer="-1.00" shape="876.895460,655.713742 863.983857,662.663737 866.681250,667.681266 879.592846,660.731275 876.895460,655.713742"/>
    <poly id="271877819" type="building" color="255,230,230" fill="1" layer="-1.00" shape="879.592846,660.731275 866.681250,667.681266 869.461091,672.855224 882.380981,665.916440 879.592846,660.731275"/>
    <poly id="271877821" type="building" color="255,230,230" fill="1" layer="-1.00" shape="882.380981,665.916440 869.461091,672.855224 872.108817,677.794439 885.028834,670.844559 882.380981,665.916440"/>
    <poly id="271877823" type="building" color="255,230,230" fill="1" layer="-1.00" shape="901.801517,672.423458 899.598997,668.333390 890.702767,673.111247 890.042880,671.882018 886.587937,673.738900 885.028834,670.844559 872.108817,677.794439 874.047526,681.381707 873.980605,682.035948 874.158629,682.659834 874.332502,682.928389 874.824940,683.356219 875.446542,683.563556 875.766846,683.578519 876.401429,683.408527 876.920499,683.026195 877.256059,682.475115 877.365010,681.832483 883.052565,678.770129 884.644583,678.933651 887.174217,677.576330 887.808662,676.018524 889.450348,679.058194 901.801517,672.423458"/>
    <poly id="271877825" type="building" color="255,230,230" fill="1" layer="-1.00" shape="906.041510,680.301840 901.801517,672.423458 889.450348,679.058194 890.588485,681.192491 879.544520,687.132440 878.903913,687.102514 878.310823,687.328518 878.063871,687.525386 877.694982,688.042758 877.590179,688.341262 877.574120,688.973911 877.663132,689.285854 878.002445,689.822864 878.520982,690.184394 878.823484,690.276860 880.770352,693.886433 893.724214,686.925874 906.041510,680.301840"/>
    <poly id="271877827" type="building" color="255,230,230" fill="1" layer="-1.00" shape="893.724214,686.925874 880.770352,693.886433 883.277920,698.557503 896.231911,691.585848 893.724214,686.925874"/>
    <poly id="271877828" type="building" color="255,230,230" fill="1" layer="-1.00" shape="896.231911,691.585848 883.277920,698.557503 883.929507,699.775529 883.465184,700.513800 884.422085,702.290632 885.579354,702.837502 886.032975,703.686760 898.995392,696.715211 896.231911,691.585848"/>
    <poly id="271877830" type="building" color="255,230,230" fill="1" layer="-1.00" shape="898.995392,696.715211 886.032975,703.686760 888.515774,708.313123 901.478186,701.341579 898.995392,696.715211"/>
    <poly id="271877832" type="building" color="255,230,230" fill="1" layer="-1.00" shape="914.321630,701.440916 911.401556,696.009891 901.478186,701.341579 888.515774,708.313123 890.132690,711.308084 889.672382,711.713328 889.525817,711.978021 889.417401,712.576250 889.578959,713.166630 889.978235,713.626645 890.246336,713.774210 890.843708,713.892436 891.435859,713.744139 897.734555,710.356089 907.140045,705.306818 914.321630,701.440916"/>
    <poly id="271877834" type="building" color="255,230,230" fill="1" layer="-1.00" shape="903.954037,721.933263 905.150919,721.292645 906.622061,721.687867 911.902027,718.853774 912.213629,717.491923 913.266224,716.927285 915.823287,721.687784 923.098155,717.778605 914.321630,701.440916 907.140045,705.306818 909.532214,709.754456 908.292898,710.416766 906.942085,709.834252 901.695978,712.657654 901.527330,714.054536 900.126727,714.803724 897.734555,710.356089 891.435859,713.744139 890.137117,714.439043 898.922110,730.776805 906.519537,726.693860 903.954037,721.933263"/>
    <poly id="271877837" type="building" color="255,230,230" fill="1" layer="-1.00" shape="926.325917,731.262662 922.688164,724.501779 901.635916,735.827854 905.273682,742.588726 911.623356,739.167995 926.325917,731.262662"/>
    <poly id="271877846" type="building" color="255,230,230" fill="1" layer="-1.00" shape="850.481286,590.567944 852.658827,594.635490 863.838764,588.619420 861.661094,584.562971 869.988673,580.089094 874.261684,588.034467 887.266585,581.052303 873.012233,554.545375 819.820785,583.137405 838.356462,617.611885 850.911404,610.868494 842.348887,594.944272 847.068748,592.403151 850.481286,590.567944"/>
    <poly id="271877849" type="building" color="255,230,230" fill="1" layer="-1.00" shape="932.225609,728.091879 926.325917,731.262662 911.623356,739.167995 918.948115,752.801371 918.310056,753.259983 917.863803,753.898547 917.652321,754.650967 917.693545,755.428639 917.807049,755.807493 925.527970,770.156214 923.719537,771.155836 923.104903,771.770164 922.690640,772.553447 922.575931,772.973959 922.540058,773.850624 922.774426,774.697240 927.772984,784.005907 954.546523,769.606914 932.225609,728.091879"/>
    <poly id="271877851" type="building" color="255,230,230" fill="1" layer="-1.00" shape="931.550492,719.734654 938.314410,732.317650 957.566978,721.969192 958.056743,720.520673 961.333395,718.761596 957.011167,710.715650 945.907759,716.688090 944.498589,716.748811 938.420594,720.017356 937.208057,717.760026 943.285919,714.502581 944.043648,713.212727 955.147059,707.240283 950.692842,698.948494 939.580990,704.920843 938.155220,704.959159 932.085652,708.227811 930.955696,706.115811 937.025131,702.858259 937.782860,701.568405 948.894582,695.607154 944.572326,687.561216 941.193805,689.374585 939.552266,689.121633 920.579789,699.318082 929.282017,715.521653 915.020858,723.188048 914.158867,724.732005 907.410307,728.358872 906.519537,726.693860 898.922110,730.776805 901.635916,735.827854 922.688164,724.501779 931.550492,719.734654"/>
    <poly id="271877854" type="building" color="255,230,230" fill="1" layer="-1.00" shape="878.485881,630.818899 873.036010,633.750892 877.605870,642.254971 883.055737,639.322982 880.374808,634.338953 878.485881,630.818899"/>
    <poly id="271877856" type="building" color="255,230,230" fill="1" layer="-1.00" shape="902.945887,643.259880 901.825287,643.868111 899.185599,638.962290 900.306200,638.354059 899.646311,637.124829 905.554630,633.943025 904.647250,632.255608 906.625169,631.191409 912.349861,641.841114 910.371944,642.905311 909.489328,641.262602 903.581146,644.433301 902.945887,643.259880"/>
    <poly id="271877857" type="building" color="255,230,230" fill="1" layer="-1.00" shape="907.477831,655.604987 915.049907,651.532846 914.068511,649.689100 916.301145,648.483642 919.171711,653.825251 924.799876,650.795520 906.075017,615.963247 900.064956,619.188234 902.836495,624.351002 900.892573,625.393407 900.042747,623.828811 892.521650,627.868276 890.591367,624.281105 883.435154,628.136234 887.922552,636.483891 890.910640,634.876739 892.758334,638.318582 889.770246,639.925733 895.857961,651.245951 898.846045,649.638803 899.448242,650.756312 900.702029,653.091850 897.713946,654.698998 902.160085,662.968450 909.350140,659.102644 907.477831,655.604987"/>
    <poly id="271880302" type="building" color="255,230,230" fill="1" layer="-1.00" shape="862.659277,740.387486 862.220782,739.682744 861.379409,740.216628 860.596400,741.506185 861.215059,742.657198 859.067323,743.819284 866.294193,757.184966 870.513234,754.904287 862.659277,740.387486"/>
    <poly id="271880303" type="building" color="255,230,230" fill="1" layer="-1.00" shape="793.661812,804.916748 785.597405,809.271746 788.253967,814.177730 796.318370,809.822736 793.661812,804.916748"/>
    <poly id="271880305" type="building" color="255,230,230" fill="1" layer="-1.00" shape="842.270335,817.770501 853.959624,811.449690 847.953772,800.341436 846.841766,800.938675 845.818882,799.038925 851.353749,796.041325 852.384931,797.952278 851.323921,798.516823 857.329770,809.625080 868.976521,803.337087 864.802151,795.614950 862.442281,796.885504 862.062816,796.181473 861.724167,794.190044 855.479120,782.634802 845.742357,787.891091 846.278562,788.885675 842.645266,790.851452 842.109060,789.856869 832.210896,795.211153 838.497326,806.833490 839.891098,808.049352 840.287027,808.786887 838.062886,809.992469 842.270335,817.770501"/>
    <poly id="271880307" type="building" color="255,230,230" fill="1" layer="-1.00" shape="859.067323,743.819284 854.856846,746.088971 862.083721,759.454648 866.294193,757.184966 859.067323,743.819284"/>
    <poly id="271880309" type="building" color="255,230,230" fill="1" layer="-1.00" shape="883.608267,842.572050 886.588376,840.920392 884.425789,837.019550 883.433978,836.741135 885.989525,835.328614 879.089097,822.877248 878.615006,822.327511 877.758379,822.028521 876.447207,822.356895 875.755083,823.103523 875.658048,824.157092 875.745453,824.602245 874.198713,825.582828 882.122551,839.889541 883.608267,842.572050"/>
    <poly id="271880311" type="building" color="255,230,230" fill="1" layer="-1.00" shape="890.848833,881.373766 896.028430,878.460737 888.209867,864.521658 885.382353,866.108540 883.623861,862.967539 881.271771,864.293692 890.848833,881.373766"/>
    <poly id="271880313" type="building" color="255,230,230" fill="1" layer="-1.00" shape="854.856846,746.088971 850.527380,748.434943 857.754260,761.800616 862.083721,759.454648 854.856846,746.088971"/>
    <poly id="271880315" type="building" color="255,230,230" fill="1" layer="-1.00" shape="874.198713,825.582828 872.741244,825.454237 870.911683,826.109439 869.794461,827.139609 868.815908,828.560039 878.572272,846.164072 880.983527,844.827528 879.159442,841.530303 882.122551,839.889541 874.198713,825.582828"/>
    <poly id="271880317" type="building" color="255,230,230" fill="1" layer="-1.00" shape="881.271771,864.293692 878.826391,865.663132 880.584885,868.804132 877.799937,870.358222 885.618512,884.297290 890.848833,881.373766 881.271771,864.293692"/>
    <poly id="271880319" type="building" color="255,230,230" fill="1" layer="-1.00" shape="850.527380,748.434943 846.138622,750.802409 853.365508,764.168078 857.754260,761.800616 850.527380,748.434943"/>
    <poly id="271880322" type="building" color="255,230,230" fill="1" layer="-1.00" shape="868.815908,828.560039 867.433395,828.510069 865.494481,829.141750 864.140619,830.213479 863.398977,831.570150 871.322829,845.876851 873.954797,844.420837 875.778884,847.718061 878.572272,846.164072 868.815908,828.560039"/>
    <poly id="271880324" type="building" color="255,230,230" fill="1" layer="-1.00" shape="877.799937,870.358222 875.227138,871.803845 873.493404,868.707555 871.081890,870.066303 880.634206,887.101655 885.618512,884.297290 877.799937,870.358222"/>
    <poly id="271880326" type="building" color="255,230,230" fill="1" layer="-1.00" shape="902.062415,966.265490 903.136256,966.733640 924.356642,955.398509 924.556075,954.246253 921.215843,947.999669 919.713425,948.803136 910.847645,932.197901 903.522397,936.106479 906.920337,942.464775 905.147552,941.910480 902.439720,943.365567 901.620318,944.876731 898.395571,938.842498 891.248485,942.664416 900.122727,959.269729 898.722170,960.018916 902.062415,966.265490"/>
    <poly id="271880329" type="building" color="255,230,230" fill="1" layer="-1.00" shape="846.138622,750.802409 844.406891,751.736359 843.779664,750.596347 841.292359,751.943090 849.138045,766.448665 853.365508,764.168078 846.138622,750.802409"/>
    <poly id="271880331" type="building" color="255,230,230" fill="1" layer="-1.00" shape="863.398977,831.570150 861.704198,831.538623 859.831407,832.282127 858.628393,833.433393 858.160468,834.471389 867.908416,852.075307 870.574379,850.597497 868.741858,847.300172 871.322829,845.876851 863.398977,831.570150"/>
    <poly id="271880333" type="building" color="255,230,230" fill="1" layer="-1.00" shape="871.081890,870.066303 868.687376,871.414154 870.421244,874.499342 867.636167,876.064537 875.446322,890.003492 880.634206,887.101655 871.081890,870.066303"/>
    <poly id="271880335" type="building" color="255,230,230" fill="1" layer="-1.00" shape="800.820884,809.910264 797.374327,811.778389 796.318370,809.822736 788.253967,814.177730 782.371138,817.359930 785.233831,822.656983 802.627613,813.251670 800.820884,809.910264"/>
    <poly id="271880337" type="building" color="255,230,230" fill="1" layer="-1.00" shape="841.292359,751.943090 838.525045,753.430793 839.003430,754.324756 837.704700,755.019670 846.243336,770.810378 850.301209,768.605463 849.138045,766.448665 841.292359,751.943090"/>
    <poly id="271880339" type="building" color="255,230,230" fill="1" layer="-1.00" shape="858.160468,834.471389 856.687474,834.231589 854.253464,835.356919 852.805912,836.505239 852.531399,837.589976 860.455264,851.896666 863.350505,850.288386 865.174595,853.585607 867.908416,852.075307 858.160468,834.471389"/>
    <poly id="271880341" type="building" color="255,230,230" fill="1" layer="-1.00" shape="838.062886,809.992469 835.719889,811.263234 835.480565,810.827353 835.082615,808.857416 828.713862,797.067554 818.926142,802.356571 819.445886,803.317647 815.736311,805.315825 815.216432,804.365851 805.403167,809.676783 811.788542,821.489030 812.883427,822.312700 813.312420,823.106144 811.359996,824.159572 815.682978,832.149928 826.947792,826.057115 820.950211,814.960085 819.812779,815.568125 818.649614,813.411331 824.651318,810.163977 825.822914,812.320873 824.642918,812.961706 830.640495,824.058739 842.270335,817.770501 838.062886,809.992469"/>
    <poly id="271880344" type="building" color="255,230,230" fill="1" layer="-1.00" shape="867.636167,876.064537 865.080370,877.499265 863.189764,874.123524 860.710393,875.514765 870.411162,892.829455 875.446322,890.003492 867.636167,876.064537"/>
    <poly id="271880346" type="building" color="255,230,230" fill="1" layer="-1.00" shape="800.525729,817.611845 803.980717,815.743823 802.627613,813.251670 785.233831,822.656983 788.212034,828.166375 802.159252,820.629192 800.525729,817.611845"/>
    <poly id="271880348" type="building" color="255,230,230" fill="1" layer="-1.00" shape="837.704700,755.019670 833.595961,757.246184 842.126303,773.025684 846.243336,770.810378 837.704700,755.019670"/>
    <poly id="271880350" type="building" color="255,230,230" fill="1" layer="-1.00" shape="852.531399,837.589976 847.216472,840.534713 856.881986,857.982187 859.632937,856.449885 857.891162,853.320194 860.455264,851.896666 852.531399,837.589976"/>
    <poly id="271880353" type="building" color="255,230,230" fill="1" layer="-1.00" shape="860.710393,875.514765 858.383876,876.819029 860.274618,880.183668 857.370689,881.814049 865.189290,895.753095 870.411162,892.829455 860.710393,875.514765"/>
    <poly id="271880355" type="building" color="255,230,230" fill="1" layer="-1.00" shape="807.090886,821.499067 803.635900,823.367088 802.159252,820.629192 788.212034,828.166375 791.116078,833.530544 808.509842,824.125244 807.090886,821.499067"/>
    <poly id="271880356" type="building" color="255,230,230" fill="1" layer="-1.00" shape="833.595961,757.246184 829.682508,759.364027 838.212857,775.143523 842.126303,773.025684 833.595961,757.246184"/>
    <poly id="271880357" type="building" color="255,230,230" fill="1" layer="-1.00" shape="847.216472,840.534713 842.614819,843.077254 850.538698,857.383933 852.559380,856.264724 854.301022,859.405514 856.881986,857.982187 847.216472,840.534713"/>
    <poly id="271880358" type="building" color="255,230,230" fill="1" layer="-1.00" shape="857.370689,881.814049 854.738470,883.292270 852.847727,879.927633 850.300501,881.351367 860.009717,898.666145 865.189290,895.753095 857.370689,881.814049"/>
    <poly id="271880360" type="building" color="255,230,230" fill="1" layer="-1.00" shape="894.557296,952.219154 890.033190,954.629370 897.538315,968.675701 902.062415,966.265490 898.722170,960.018916 894.557296,952.219154"/>
    <poly id="271880362" type="building" color="255,230,230" fill="1" layer="-1.00" shape="806.333671,828.351293 809.780223,826.483172 808.509842,824.125244 791.116078,833.530544 793.986923,838.849903 807.934128,831.312731 806.333671,828.351293"/>
    <poly id="271880365" type="building" color="255,230,230" fill="1" layer="-1.00" shape="829.682508,759.364027 825.913347,761.405894 834.443700,777.185385 838.212857,775.143523 829.682508,759.364027"/>
    <poly id="271880367" type="building" color="255,230,230" fill="1" layer="-1.00" shape="842.614819,843.077254 837.758325,845.772163 845.682210,860.078837 850.538698,857.383933 842.614819,843.077254"/>
    <poly id="271880369" type="building" color="255,230,230" fill="1" layer="-1.00" shape="890.033190,954.629370 885.483522,957.061485 892.988654,971.107812 897.538315,968.675701 890.033190,954.629370"/>
    <poly id="271880371" type="building" color="255,230,230" fill="1" layer="-1.00" shape="825.913347,761.405894 821.694457,763.675497 829.828751,778.728550 830.233116,779.466186 834.443700,777.185385 825.913347,761.405894"/>
    <poly id="271880373" type="building" color="255,230,230" fill="1" layer="-1.00" shape="837.758325,845.772163 833.156679,848.314710 841.080436,862.632480 842.376364,864.968517 844.957324,863.545186 843.661530,861.198048 845.682210,860.078837 837.758325,845.772163"/>
    <poly id="271880375" type="building" color="255,230,230" fill="1" layer="-1.00" shape="885.483522,957.061485 881.095142,959.406727 888.591846,973.452948 892.988654,971.107812 885.483522,957.061485"/>
    <poly id="271880378" type="building" color="255,230,230" fill="1" layer="-1.00" shape="821.694457,763.675497 820.671846,763.152464 819.010924,763.809711 817.996637,765.396254 816.711300,766.379998 826.660759,784.774558 829.249908,783.373525 827.434884,780.020910 829.828751,778.728550 821.694457,763.675497"/>
    <poly id="271880380" type="building" color="255,230,230" fill="1" layer="-1.00" shape="833.156679,848.314710 828.707755,850.781383 836.631651,865.088046 841.080436,862.632480 833.156679,848.314710"/>
    <poly id="271880382" type="building" color="255,230,230" fill="1" layer="-1.00" shape="881.095142,959.406727 876.689765,961.762869 884.194908,975.809187 888.591846,973.452948 881.095142,959.406727"/>
    <poly id="271880385" type="building" color="255,230,230" fill="1" layer="-1.00" shape="825.094913,859.453325 828.066702,857.790442 826.530910,855.062930 808.589633,865.116639 811.239866,869.844917 826.209480,861.442997 825.094913,859.453325"/>
    <poly id="271880387" type="building" color="255,230,230" fill="1" layer="-1.00" shape="816.711300,766.379998 811.864135,768.997319 819.998576,784.039260 822.282150,782.801082 824.097041,786.164796 826.660759,784.774558 816.711300,766.379998"/>
    <poly id="271880390" type="building" color="255,230,230" fill="1" layer="-1.00" shape="828.653306,865.802412 826.209480,861.442997 811.239866,869.844917 813.683698,874.204328 828.432460,865.932982 828.653306,865.802412"/>
    <poly id="271880393" type="building" color="255,230,230" fill="1" layer="-1.00" shape="811.864135,768.997319 811.111898,768.433134 809.657368,768.759794 808.763937,769.415183 808.786436,770.348064 807.186693,771.527868 817.111271,789.888808 819.870135,788.400996 818.080006,785.081991 819.998576,784.039260 811.864135,768.997319"/>
    <poly id="271880395" type="building" color="255,230,230" fill="1" layer="-1.00" shape="828.432460,865.932982 813.683698,874.204328 816.119228,878.552536 830.867985,870.281196 828.432460,865.932982"/>
    <poly id="271880397" type="building" color="255,230,230" fill="1" layer="-1.00" shape="807.186693,771.527868 805.824243,771.211692 805.046851,771.335560 804.399567,771.860684 803.994962,773.243624 802.169817,774.231972 810.304137,789.285003 812.714997,787.981740 814.505128,791.300743 817.111271,789.888808 807.186693,771.527868"/>
    <poly id="271880399" type="building" color="255,230,230" fill="1" layer="-1.00" shape="830.867985,870.281196 816.119228,878.552536 818.530127,882.844937 833.278878,874.573601 830.867985,870.281196"/>
    <poly id="271880401" type="building" color="255,230,230" fill="1" layer="-1.00" shape="802.169817,774.231972 800.930912,774.161540 798.903923,775.103047 797.348093,776.838507 807.280987,795.210636 809.785269,793.852984 807.986704,790.533880 810.304137,789.285003 802.169817,774.231972"/>
    <poly id="271880404" type="building" color="255,230,230" fill="1" layer="-1.00" shape="835.615349,878.742983 833.278878,874.573601 818.530127,882.844937 820.866603,887.014314 826.657442,883.764423 835.615349,878.742983"/>
    <poly id="271880406" type="building" color="255,230,230" fill="1" layer="-1.00" shape="798.154084,800.252282 800.709225,798.873034 798.885895,795.509224 801.076036,794.325427 792.916807,779.238798 792.328127,778.399022 790.902507,778.426266 789.705510,779.078003 789.228236,780.893066 788.179949,781.801951 796.339185,796.888574 798.154084,800.252282"/>
    <poly id="271880410" type="building" color="255,230,230" fill="1" layer="-1.00" shape="788.179949,781.801951 784.826808,783.615694 792.986048,798.702314 796.339185,796.888574 788.179949,781.801951"/>
    <poly id="271880412" type="building" color="255,230,230" fill="1" layer="-1.00" shape="784.826808,783.615694 781.473668,785.429439 789.632913,800.516055 792.986048,798.702314 784.826808,783.615694"/>
    <poly id="271880413" type="building" color="255,230,230" fill="1" layer="-1.00" shape="781.473668,785.429439 780.810700,784.455540 778.969083,784.710930 777.610135,785.505051 776.356130,786.689023 775.539958,788.633237 783.699212,803.719846 789.632913,800.516055 781.473668,785.429439"/>
    <poly id="271880415" type="building" color="255,230,230" fill="1" layer="-1.00" shape="870.183924,956.466276 859.497342,962.177400 861.740612,966.378977 872.435622,960.667957 870.183924,956.466276"/>
    <poly id="271880417" type="building" color="255,230,230" fill="1" layer="-1.00" shape="872.435622,960.667957 861.740612,966.378977 863.983880,970.580554 874.678886,964.869538 872.435622,960.667957"/>
    <poly id="271880419" type="building" color="255,230,230" fill="1" layer="-1.00" shape="874.678886,964.869538 863.983880,970.580554 866.252041,974.815739 876.938610,969.104625 874.678886,964.869538"/>
    <poly id="271880421" type="building" color="255,230,230" fill="1" layer="-1.00" shape="876.938610,969.104625 866.252041,974.815739 868.594215,979.207253 879.280780,973.496142 876.938610,969.104625"/>
    <poly id="271880423" type="building" color="255,230,230" fill="1" layer="-1.00" shape="879.949356,762.700948 878.588101,760.186477 879.793542,759.534856 878.374598,756.908666 858.467851,767.671336 860.266266,771.001554 864.256149,768.840237 865.237941,770.650674 879.949356,762.700948"/>
    <poly id="271880426" type="building" color="255,230,230" fill="1" layer="-1.00" shape="879.949356,762.700948 865.237941,770.650674 866.541375,773.064523 863.604209,774.650092 865.047918,777.320988 882.696624,767.774598 879.949356,762.700948"/>
    <poly id="271880428" type="building" color="255,230,230" fill="1" layer="-1.00" shape="882.696624,767.774598 865.047918,777.320988 866.227539,779.511294 869.164703,777.925727 870.806506,780.954292 885.517907,773.004576 882.696624,767.774598"/>
    <poly id="271880430" type="building" color="255,230,230" fill="1" layer="-1.00" shape="870.806506,780.954292 872.076875,783.312230 869.139713,784.897797 870.517563,787.434671 870.678448,787.381097 888.166119,777.899395 885.517907,773.004576 870.806506,780.954292"/>
    <poly id="271880431" type="building" color="255,230,230" fill="1" layer="-1.00" shape="872.419030,790.610698 874.234030,793.963324 892.824869,783.917599 891.010008,780.553867 872.419030,790.610698"/>
    <poly id="271880433" type="building" color="255,230,230" fill="1" layer="-1.00" shape="889.269298,777.335363 888.166119,777.899395 870.678448,787.381097 872.419030,790.610698 891.010008,780.553867 889.269298,777.335363"/>
    <poly id="271880436" type="building" color="255,230,230" fill="1" layer="-1.00" shape="908.465611,818.501724 908.696632,818.226947 908.860730,817.906953 909.020812,817.220528 908.928055,816.519951 908.581255,815.905132 908.030069,815.454386 907.366451,815.235437 906.657592,815.271300 905.394468,813.013365 886.756704,823.458182 885.856579,823.969150 887.259980,826.484130 892.312190,823.647280 893.979940,826.620651 907.378766,819.110360 908.465611,818.501724"/>
    <poly id="271880439" type="building" color="255,230,230" fill="1" layer="-1.00" shape="910.276706,824.274658 910.532623,824.033489 910.885713,823.427109 910.974187,823.083998 910.949024,822.373134 910.661519,821.736825 910.161463,821.242285 909.515380,820.968035 909.161620,820.930462 908.468690,821.044235 907.378766,819.110360 893.979940,826.620651 893.011954,827.164107 894.597119,829.992150 889.145912,833.046239 890.458696,835.382488 909.037008,824.970271 910.276706,824.274658"/>