<?xml version="1.0" encoding="UTF-8"?>

<!-- generated on 04/07/19 08:35:11 by Eclipse SUMO netedit Version 1.0.1
<configuration xmlns:xsi="http://www.w3.org/2001/XMLSchema-instance" xsi:noNamespaceSchemaLocation="http://sumo.dlr.de/xsd/netconvertConfiguration.xsd">

    <input>
        <sumo-net-file value="C:\Users\Martin\Documents\newmap\map.net.xml"/>
    </input>

    <output>
        <output-file value="C:\Users\Martin\Documents\newmap\map.net.xml"/>
    </output>

    <processing>
        <offset.disable-normalization value="true"/>
        <lefthand value="false"/>
    </processing>

    <junctions>
        <no-turnarounds value="true"/>
        <junctions.corner-detail value="5"/>
        <junctions.limit-turn-speed value="5.5"/>
        <rectangular-lane-cut value="false"/>
    </junctions>

    <pedestrian>
        <walkingareas value="false"/>
    </pedestrian>

</configuration>
-->

<net version="1.0" junctionCornerDetail="5" limitTurnSpeed="5.50" xmlns:xsi="http://www.w3.org/2001/XMLSchema-instance" xsi:noNamespaceSchemaLocation="http://sumo.dlr.de/xsd/net_file.xsd">

    <location netOffset="-588184.63,-4519182.54" convBoundary="0.00,0.00,1102.74,1542.74" origBoundary="-73.954276,40.818907,-73.941078,40.832746" projParameter="+proj=utm +zone=18 +ellps=WGS84 +datum=WGS84 +units=m +no_defs"/>

    <type id="highway.bridleway" priority="1" numLanes="1" speed="2.78" allow="pedestrian" oneway="1" width="2.00"/>
    <type id="highway.bus_guideway" priority="1" numLanes="1" speed="27.78" allow="bus" oneway="1"/>
    <type id="highway.cycleway" priority="1" numLanes="1" speed="8.33" allow="bicycle" oneway="0" width="1.00"/>
    <type id="highway.footway" priority="1" numLanes="1" speed="2.78" allow="pedestrian" oneway="1" width="2.00"/>
    <type id="highway.ford" priority="1" numLanes="1" speed="2.78" allow="army" oneway="0"/>
    <type id="highway.living_street" priority="3" numLanes="1" speed="2.78" disallow="tram rail_urban rail rail_electric ship" oneway="0"/>
    <type id="highway.motorway" priority="13" numLanes="2" speed="44.44" allow="private emergency authority army vip passenger hov taxi bus coach delivery truck trailer motorcycle evehicle custom1 custom2" oneway="1"/>
    <type id="highway.motorway_link" priority="12" numLanes="1" speed="22.22" allow="private emergency authority army vip passenger hov taxi bus coach delivery truck trailer motorcycle evehicle custom1 custom2" oneway="1"/>
    <type id="highway.path" priority="1" numLanes="1" speed="2.78" allow="bicycle pedestrian" oneway="1" width="2.00"/>
    <type id="highway.pedestrian" priority="1" numLanes="1" speed="2.78" allow="pedestrian" oneway="1" width="2.00"/>
    <type id="highway.primary" priority="9" numLanes="2" speed="27.78" disallow="tram rail_urban rail rail_electric ship" oneway="0"/>
    <type id="highway.primary_link" priority="8" numLanes="1" speed="22.22" disallow="tram rail_urban rail rail_electric ship" oneway="0"/>
    <type id="highway.raceway" priority="14" numLanes="2" speed="83.33" allow="vip" oneway="0"/>
    <type id="highway.residential" priority="4" numLanes="1" speed="13.89" disallow="tram rail_urban rail rail_electric ship" oneway="0"/>
    <type id="highway.secondary" priority="7" numLanes="2" speed="27.78" disallow="tram rail_urban rail rail_electric ship" oneway="0"/>
    <type id="highway.secondary_link" priority="6" numLanes="1" speed="22.22" disallow="tram rail_urban rail rail_electric ship" oneway="0"/>
    <type id="highway.service" priority="2" numLanes="1" speed="5.56" allow="delivery bicycle pedestrian" oneway="0"/>
    <type id="highway.stairs" priority="1" numLanes="1" speed="1.39" allow="pedestrian" oneway="1" width="2.00"/>
    <type id="highway.step" priority="1" numLanes="1" speed="1.39" allow="pedestrian" oneway="1" width="2.00"/>
    <type id="highway.steps" priority="1" numLanes="1" speed="1.39" allow="pedestrian" oneway="1" width="2.00"/>
    <type id="highway.tertiary" priority="6" numLanes="1" speed="22.22" disallow="tram rail_urban rail rail_electric ship" oneway="0"/>
    <type id="highway.tertiary_link" priority="5" numLanes="1" speed="22.22" disallow="tram rail_urban rail rail_electric ship" oneway="0"/>
    <type id="highway.track" priority="1" numLanes="1" speed="5.56" disallow="tram rail_urban rail rail_electric ship" oneway="0"/>
    <type id="highway.trunk" priority="11" numLanes="2" speed="27.78" disallow="tram rail_urban rail rail_electric bicycle pedestrian ship" oneway="0"/>
    <type id="highway.trunk_link" priority="10" numLanes="1" speed="22.22" disallow="tram rail_urban rail rail_electric bicycle pedestrian ship" oneway="0"/>
    <type id="highway.unclassified" priority="5" numLanes="1" speed="13.89" disallow="tram rail_urban rail rail_electric ship" oneway="0"/>
    <type id="highway.unsurfaced" priority="1" numLanes="1" speed="8.33" disallow="tram rail_urban rail rail_electric ship" oneway="0"/>
    <type id="railway.light_rail" priority="15" numLanes="1" speed="27.78" allow="rail_urban" oneway="1"/>
    <type id="railway.preserved" priority="15" numLanes="1" speed="27.78" allow="rail" oneway="1"/>
    <type id="railway.rail" priority="15" numLanes="1" speed="83.33" allow="rail rail_electric" oneway="1"/>
    <type id="railway.subway" priority="15" numLanes="1" speed="27.78" allow="rail_urban" oneway="1"/>
    <type id="railway.tram" priority="15" numLanes="1" speed="13.89" allow="tram" oneway="1"/>

    <edge id=":4205440424_0" function="internal">
        <lane id=":4205440424_0_0" index="0" disallow="tram rail_urban rail rail_electric ship" speed="3.65" length="4.67" shape="784.29,546.86 784.67,545.47 785.30,544.83 786.18,544.96 787.33,545.84"/>
    </edge>
    <edge id=":4205440426_0" function="internal">
        <lane id=":4205440426_0_0" index="0" disallow="tram rail_urban rail rail_electric ship" speed="27.78" length="11.24" shape="838.03,658.86 832.67,649.00"/>
        <lane id=":4205440426_0_1" index="1" disallow="tram rail_urban rail rail_electric ship" speed="27.78" length="11.24" shape="840.85,657.35 835.47,647.46"/>
    </edge>
    <edge id=":4205440426_2" function="internal">
        <lane id=":4205440426_2_0" index="0" disallow="tram rail_urban rail rail_electric ship" speed="6.49" length="9.03" shape="830.44,656.58 832.44,655.11 833.47,653.36 833.55,651.32 832.67,649.00"/>
    </edge>
    <edge id=":42428926_0" function="internal">
        <lane id=":42428926_0_0" index="0" disallow="tram rail_urban rail rail_electric ship" speed="6.52" length="9.03" shape="227.36,704.72 225.89,702.73 224.13,701.69 222.09,701.60 219.77,702.45"/>
    </edge>
    <edge id=":42428926_1" function="internal">
        <lane id=":42428926_1_0" index="0" disallow="tram rail_urban rail rail_electric ship" speed="27.78" length="11.18" shape="227.36,704.72 222.04,694.87"/>
        <lane id=":42428926_1_1" index="1" disallow="tram rail_urban rail rail_electric ship" speed="27.78" length="11.18" shape="230.17,703.19 224.86,693.36"/>
    </edge>
    <edge id=":42428926_3" function="internal">
        <lane id=":42428926_3_0" index="0" disallow="tram rail_urban rail rail_electric ship" speed="13.89" length="14.37" shape="232.42,695.63 219.77,702.45"/>
    </edge>
    <edge id=":42428926_4" function="internal">
        <lane id=":42428926_4_0" index="0" disallow="tram rail_urban rail rail_electric ship" speed="6.50" length="9.01" shape="232.42,695.63 230.10,696.48 228.07,696.39 226.32,695.35 224.86,693.36"/>
    </edge>
    <edge id=":42428928_0" function="internal">
        <lane id=":42428928_0_0" index="0" disallow="tram rail_urban rail rail_electric ship" speed="27.78" length="11.21" shape="264.75,773.30 259.41,763.45"/>
        <lane id=":42428928_0_1" index="1" disallow="tram rail_urban rail rail_electric ship" speed="27.78" length="11.21" shape="267.57,771.78 262.22,761.92"/>
    </edge>
    <edge id=":42428928_2" function="internal">
        <lane id=":42428928_2_0" index="0" disallow="tram rail_urban rail rail_electric ship" speed="6.51" length="9.03" shape="267.57,771.78 266.71,769.46 266.80,767.42 267.85,765.66 269.84,764.19"/>
    </edge>
    <edge id=":42428928_3" function="internal">
        <lane id=":42428928_3_0" index="0" disallow="tram rail_urban rail rail_electric ship" speed="6.50" length="9.03" shape="257.16,771.03 259.15,769.56 260.19,767.81 260.27,765.77 259.41,763.45"/>
    </edge>
    <edge id=":42428928_4" function="internal">
        <lane id=":42428928_4_0" index="0" disallow="tram rail_urban rail rail_electric ship" speed="13.89" length="14.41" shape="257.16,771.03 269.84,764.19"/>
    </edge>
    <edge id=":42432963_0" function="internal">
        <lane id=":42432963_0_0" index="0" disallow="tram rail_urban rail rail_electric ship" speed="6.57" length="9.13" shape="799.30,588.52 797.79,586.50 796.01,585.44 793.95,585.32 791.63,586.16"/>
    </edge>
    <edge id=":42432963_1" function="internal">
        <lane id=":42432963_1_0" index="0" disallow="tram rail_urban rail rail_electric ship" speed="27.78" length="21.29" shape="799.30,588.52 796.46,582.33 794.76,576.92 793.59,572.29 792.30,568.46"/>
    </edge>
    <edge id=":42432963_2" function="internal">
        <lane id=":42432963_2_0" index="0" disallow="tram rail_urban rail rail_electric ship" speed="9.26" length="19.43" shape="802.10,586.97 800.23,582.01 800.40,577.63 802.64,573.85 806.93,570.66"/>
    </edge>
    <edge id=":42432963_3" function="internal">
        <lane id=":42432963_3_0" index="0" disallow="tram rail_urban rail rail_electric ship" speed="27.78" length="20.83" shape="809.99,576.28 791.63,586.16"/>
        <lane id=":42432963_3_1" index="1" disallow="tram rail_urban rail rail_electric ship" speed="27.78" length="20.83" shape="808.46,573.47 790.13,583.33"/>
    </edge>
    <edge id=":42432963_5" function="internal">
        <lane id=":42432963_5_0" index="0" disallow="tram rail_urban rail rail_electric ship" speed="9.08" length="7.25" shape="808.46,573.47 803.27,575.43 801.56,575.36"/>
    </edge>
    <edge id=":42432963_11" function="internal">
        <lane id=":42432963_11_0" index="0" speed="9.08" length="12.36" shape="801.56,575.36 798.85,575.25 795.19,572.93 792.30,568.46"/>
    </edge>
    <edge id=":42432963_6" function="internal">
        <lane id=":42432963_6_0" index="0" disallow="tram rail_urban rail rail_electric ship" speed="6.35" length="9.03" shape="797.98,565.49 799.32,567.56 801.00,568.64 803.02,568.74 805.40,567.84"/>
    </edge>
    <edge id=":42432963_7" function="internal">
        <lane id=":42432963_7_0" index="0" disallow="tram rail_urban rail rail_electric ship" speed="9.45" length="9.85" shape="795.14,566.97 796.70,572.13 796.39,576.58"/>
    </edge>
    <edge id=":42432963_12" function="internal">
        <lane id=":42432963_12_0" index="0" speed="9.45" length="9.39" shape="796.39,576.58 794.19,580.31 790.13,583.33"/>
    </edge>
    <edge id=":42432963_8" function="internal">
        <lane id=":42432963_8_0" index="0" disallow="tram rail_urban rail rail_electric ship" speed="7.51" length="11.78" shape="787.12,577.68 790.27,575.60 792.19,573.37 792.86,570.99 792.30,568.46"/>
    </edge>
    <edge id=":42432963_9" function="internal">
        <lane id=":42432963_9_0" index="0" disallow="tram rail_urban rail rail_electric ship" speed="27.78" length="20.77" shape="787.12,577.68 805.40,567.84"/>
        <lane id=":42432963_9_1" index="1" disallow="tram rail_urban rail rail_electric ship" speed="27.78" length="20.77" shape="788.62,580.50 806.93,570.66"/>
    </edge>
    <edge id=":42432967_0" function="internal">
        <lane id=":42432967_0_0" index="0" disallow="tram rail_urban rail rail_electric ship" speed="6.51" length="9.03" shape="875.57,728.91 874.10,726.92 872.35,725.88 870.31,725.78 867.99,726.64"/>
    </edge>
    <edge id=":42432967_1" function="internal">
        <lane id=":42432967_1_0" index="0" disallow="tram rail_urban rail rail_electric ship" speed="27.78" length="11.19" shape="875.57,728.91 870.27,719.05"/>
        <lane id=":42432967_1_1" index="1" disallow="tram rail_urban rail rail_electric ship" speed="27.78" length="11.19" shape="878.39,727.39 873.09,717.54"/>
    </edge>
    <edge id=":42432970_0" function="internal">
        <lane id=":42432970_0_0" index="0" disallow="tram rail_urban rail rail_electric ship" speed="7.33" length="11.73" shape="905.61,796.37 908.83,794.23 910.75,792.00 911.37,789.68 910.69,787.26"/>
    </edge>
    <edge id=":42434255_0" function="internal">
        <lane id=":42434255_0_0" index="0" disallow="tram rail_urban rail rail_electric ship" speed="3.65" length="4.67" shape="875.45,533.32 876.89,533.44 877.62,533.95 877.66,534.85 876.99,536.12"/>
    </edge>
    <edge id=":42434259_0" function="internal">
        <lane id=":42434259_0_0" index="0" disallow="tram rail_urban rail rail_electric ship" speed="6.50" length="9.04" shape="678.13,652.90 676.65,650.91 674.90,649.86 672.86,649.77 670.54,650.64"/>
    </edge>
    <edge id=":42434259_1" function="internal">
        <lane id=":42434259_1_0" index="0" disallow="tram rail_urban rail rail_electric ship" speed="7.32" length="11.74" shape="678.13,652.90 675.99,649.67 673.76,647.75 671.43,647.14 669.01,647.83"/>
    </edge>
    <edge id=":42434259_2" function="internal">
        <lane id=":42434259_2_0" index="0" disallow="tram rail_urban rail rail_electric ship" speed="22.22" length="20.81" shape="678.13,652.90 668.22,634.60"/>
    </edge>
    <edge id=":42434259_3" function="internal">
        <lane id=":42434259_3_0" index="0" disallow="tram rail_urban rail rail_electric ship" speed="9.31" length="9.81" shape="678.13,652.90 675.45,646.78 674.96,643.69"/>
    </edge>
    <edge id=":42434259_4" function="internal">
        <lane id=":42434259_4_0" index="0" disallow="tram rail_urban rail rail_electric ship" speed="8.66" length="7.85" shape="678.13,652.90 676.12,648.01 675.92,645.45"/>
    </edge>
    <edge id=":42434259_18" function="internal">
        <lane id=":42434259_18_0" index="0" speed="9.31" length="9.86" shape="674.96,643.69 674.66,641.81 675.75,637.99 678.73,635.33"/>
    </edge>
    <edge id=":42434259_19" function="internal">
        <lane id=":42434259_19_0" index="0" speed="8.66" length="9.03" shape="675.92,645.45 675.80,643.92 677.17,640.64 680.23,638.16"/>
    </edge>
    <edge id=":42434259_5" function="internal">
        <lane id=":42434259_5_0" index="0" disallow="tram rail_urban rail rail_electric ship" speed="6.49" length="9.03" shape="683.23,643.81 681.23,645.27 680.19,647.02 680.09,649.06 680.94,651.38"/>
    </edge>
    <edge id=":42434259_6" function="internal">
        <lane id=":42434259_6_0" index="0" disallow="tram rail_urban rail rail_electric ship" speed="27.78" length="14.43" shape="683.23,643.81 670.54,650.64"/>
        <lane id=":42434259_6_1" index="1" disallow="tram rail_urban rail rail_electric ship" speed="27.78" length="14.43" shape="681.73,640.98 669.01,647.83"/>
    </edge>
    <edge id=":42434259_8" function="internal">
        <lane id=":42434259_8_0" index="0" disallow="tram rail_urban rail rail_electric ship" speed="8.71" length="5.26" shape="681.73,640.98 677.97,642.14 676.67,641.89"/>
    </edge>
    <edge id=":42434259_20" function="internal">
        <lane id=":42434259_20_0" index="0" speed="8.71" length="11.64" shape="676.67,641.89 674.46,641.46 671.21,638.94 668.22,634.60"/>
    </edge>
    <edge id=":42434259_9" function="internal">
        <lane id=":42434259_9_0" index="0" disallow="tram rail_urban rail rail_electric ship" speed="6.56" length="9.13" shape="671.03,633.07 672.52,635.06 674.30,636.10 676.36,636.19 678.73,635.33"/>
    </edge>
    <edge id=":42434259_10" function="internal">
        <lane id=":42434259_10_0" index="0" disallow="tram rail_urban rail rail_electric ship" speed="7.37" length="11.80" shape="671.03,633.07 673.19,636.29 675.44,638.21 677.78,638.84 680.23,638.16"/>
    </edge>
    <edge id=":42434259_11" function="internal">
        <lane id=":42434259_11_0" index="0" disallow="tram rail_urban rail rail_electric ship" speed="22.22" length="20.82" shape="671.03,633.07 680.94,651.38"/>
    </edge>
    <edge id=":42434259_12" function="internal">
        <lane id=":42434259_12_0" index="0" disallow="tram rail_urban rail rail_electric ship" speed="9.33" length="9.90" shape="671.03,633.07 673.72,639.18 674.25,642.36"/>
    </edge>
    <edge id=":42434259_13" function="internal">
        <lane id=":42434259_13_0" index="0" disallow="tram rail_urban rail rail_electric ship" speed="8.68" length="7.90" shape="671.03,633.07 673.05,637.94 673.27,640.56"/>
    </edge>
    <edge id=":42434259_21" function="internal">
        <lane id=":42434259_21_0" index="0" speed="9.33" length="9.74" shape="674.25,642.36 674.54,644.14 673.48,647.96 670.54,650.64"/>
    </edge>
    <edge id=":42434259_22" function="internal">
        <lane id=":42434259_22_0" index="0" speed="8.68" length="8.96" shape="673.27,640.56 673.39,642.03 672.04,645.32 669.01,647.83"/>
    </edge>
    <edge id=":42434259_14" function="internal">
        <lane id=":42434259_14_0" index="0" disallow="tram rail_urban rail rail_electric ship" speed="6.52" length="9.05" shape="665.95,642.20 667.95,640.72 668.99,638.96 669.08,636.92 668.22,634.60"/>
    </edge>
    <edge id=":42434259_15" function="internal">
        <lane id=":42434259_15_0" index="0" disallow="tram rail_urban rail rail_electric ship" speed="27.78" length="14.49" shape="665.95,642.20 678.73,635.33"/>
        <lane id=":42434259_15_1" index="1" disallow="tram rail_urban rail rail_electric ship" speed="27.78" length="14.49" shape="667.48,645.02 680.23,638.16"/>
    </edge>
    <edge id=":42434259_17" function="internal">
        <lane id=":42434259_17_0" index="0" disallow="tram rail_urban rail rail_electric ship" speed="8.67" length="5.31" shape="667.48,645.02 671.23,643.83 672.58,644.09"/>
    </edge>
    <edge id=":42434259_23" function="internal">
        <lane id=":42434259_23_0" index="0" speed="8.67" length="11.57" shape="672.58,644.09 674.72,644.50 677.96,647.01 680.94,651.38"/>
    </edge>
    <edge id=":42434262_0" function="internal">
        <lane id=":42434262_0_0" index="0" disallow="tram rail_urban rail rail_electric ship" speed="6.52" length="9.05" shape="558.55,717.95 557.06,715.96 555.30,714.92 553.26,714.83 550.94,715.69"/>
    </edge>
    <edge id=":42434262_1" function="internal">
        <lane id=":42434262_1_0" index="0" disallow="tram rail_urban rail rail_electric ship" speed="7.33" length="11.74" shape="558.55,717.95 556.39,714.73 554.15,712.81 551.82,712.20 549.41,712.88"/>
    </edge>
    <edge id=":42434262_2" function="internal">
        <lane id=":42434262_2_0" index="0" disallow="tram rail_urban rail rail_electric ship" speed="27.78" length="20.91" shape="558.55,717.95 548.62,699.53"/>
        <lane id=":42434262_2_1" index="1" disallow="tram rail_urban rail rail_electric ship" speed="27.78" length="20.91" shape="561.36,716.41 551.44,698.03"/>
    </edge>
    <edge id=":42434262_4" function="internal">
        <lane id=":42434262_4_0" index="0" disallow="tram rail_urban rail rail_electric ship" speed="9.84" length="8.77" shape="561.36,716.41 558.83,710.21 558.71,708.14"/>
    </edge>
    <edge id=":42434262_5" function="internal">
        <lane id=":42434262_5_0" index="0" disallow="tram rail_urban rail rail_electric ship" speed="9.26" length="7.02" shape="561.36,716.41 559.50,711.44 559.57,709.73"/>
    </edge>
    <edge id=":42434262_24" function="internal">
        <lane id=":42434262_24_0" index="0" speed="9.84" length="13.27" shape="558.71,708.14 558.54,704.96 560.48,700.65 564.66,697.30"/>
    </edge>
    <edge id=":42434262_25" function="internal">
        <lane id=":42434262_25_0" index="0" speed="9.26" length="12.39" shape="559.57,709.73 559.69,707.07 561.92,703.29 566.19,700.11"/>
    </edge>
    <edge id=":42434262_6" function="internal">
        <lane id=":42434262_6_0" index="0" disallow="tram rail_urban rail rail_electric ship" speed="6.52" length="9.07" shape="569.25,705.73 567.25,707.22 566.20,708.98 566.11,711.03 566.98,713.35"/>
    </edge>
    <edge id=":42434262_7" function="internal">
        <lane id=":42434262_7_0" index="0" disallow="tram rail_urban rail rail_electric ship" speed="7.33" length="11.77" shape="569.25,705.73 566.02,707.89 564.09,710.13 563.48,712.46 564.17,714.88"/>
    </edge>
    <edge id=":42434262_8" function="internal">
        <lane id=":42434262_8_0" index="0" disallow="tram rail_urban rail rail_electric ship" speed="27.78" length="20.85" shape="569.25,705.73 550.94,715.69"/>
        <lane id=":42434262_8_1" index="1" disallow="tram rail_urban rail rail_electric ship" speed="27.78" length="20.85" shape="567.72,702.92 549.41,712.88"/>
    </edge>
    <edge id=":42434262_10" function="internal">
        <lane id=":42434262_10_0" index="0" disallow="tram rail_urban rail rail_electric ship" speed="9.82" length="8.67" shape="567.72,702.92 561.50,705.44 559.55,705.55"/>
    </edge>
    <edge id=":42434262_11" function="internal">
        <lane id=":42434262_11_0" index="0" disallow="tram rail_urban rail rail_electric ship" speed="9.24" length="6.96" shape="567.72,702.92 562.73,704.78 561.09,704.70"/>
    </edge>
    <edge id=":42434262_26" function="internal">
        <lane id=":42434262_26_0" index="0" speed="9.82" length="13.41" shape="559.55,705.55 556.24,705.72 551.95,703.75 548.62,699.53"/>
    </edge>
    <edge id=":42434262_27" function="internal">
        <lane id=":42434262_27_0" index="0" speed="9.24" length="12.46" shape="561.09,704.70 558.35,704.58 554.59,702.33 551.44,698.03"/>
    </edge>
    <edge id=":42434262_12" function="internal">
        <lane id=":42434262_12_0" index="0" disallow="tram rail_urban rail rail_electric ship" speed="6.49" length="9.03" shape="557.09,695.02 558.56,697.02 560.31,698.07 562.34,698.16 564.66,697.30"/>
    </edge>
    <edge id=":42434262_13" function="internal">
        <lane id=":42434262_13_0" index="0" disallow="tram rail_urban rail rail_electric ship" speed="7.31" length="11.74" shape="557.09,695.02 559.22,698.26 561.44,700.18 563.77,700.80 566.19,700.11"/>
    </edge>
    <edge id=":42434262_14" function="internal">
        <lane id=":42434262_14_0" index="0" disallow="tram rail_urban rail rail_electric ship" speed="27.78" length="20.84" shape="557.09,695.02 566.98,713.35"/>
        <lane id=":42434262_14_1" index="1" disallow="tram rail_urban rail rail_electric ship" speed="27.78" length="20.84" shape="554.27,696.53 564.17,714.88"/>
    </edge>
    <edge id=":42434262_16" function="internal">
        <lane id=":42434262_16_0" index="0" disallow="tram rail_urban rail rail_electric ship" speed="9.88" length="8.62" shape="554.27,696.53 556.75,702.77 556.84,704.67"/>
    </edge>
    <edge id=":42434262_17" function="internal">
        <lane id=":42434262_17_0" index="0" disallow="tram rail_urban rail rail_electric ship" speed="9.31" length="6.93" shape="554.27,696.53 556.09,701.54 556.01,703.13"/>
    </edge>
    <edge id=":42434262_28" function="internal">
        <lane id=":42434262_28_0" index="0" speed="9.88" length="13.42" shape="556.84,704.67 557.02,708.05 555.08,712.35 550.94,715.69"/>
    </edge>
    <edge id=":42434262_29" function="internal">
        <lane id=":42434262_29_0" index="0" speed="9.31" length="12.49" shape="556.01,703.13 555.88,705.93 553.66,709.71 549.41,712.88"/>
    </edge>
    <edge id=":42434262_18" function="internal">
        <lane id=":42434262_18_0" index="0" disallow="tram rail_urban rail rail_electric ship" speed="6.57" length="9.17" shape="546.35,707.26 548.35,705.77 549.39,703.98 549.48,701.90 548.62,699.53"/>
    </edge>
    <edge id=":42434262_19" function="internal">
        <lane id=":42434262_19_0" index="0" disallow="tram rail_urban rail rail_electric ship" speed="7.38" length="11.84" shape="546.35,707.26 549.58,705.10 551.50,702.84 552.13,700.48 551.44,698.03"/>
    </edge>
    <edge id=":42434262_20" function="internal">
        <lane id=":42434262_20_0" index="0" disallow="tram rail_urban rail rail_electric ship" speed="27.78" length="20.85" shape="546.35,707.26 564.66,697.30"/>
        <lane id=":42434262_20_1" index="1" disallow="tram rail_urban rail rail_electric ship" speed="27.78" length="20.85" shape="547.88,710.07 566.19,700.11"/>
    </edge>
    <edge id=":42434262_22" function="internal">
        <lane id=":42434262_22_0" index="0" disallow="tram rail_urban rail rail_electric ship" speed="9.85" length="8.68" shape="547.88,710.07 554.08,707.55 556.06,707.44"/>
    </edge>
    <edge id=":42434262_23" function="internal">
        <lane id=":42434262_23_0" index="0" disallow="tram rail_urban rail rail_electric ship" speed="9.26" length="6.95" shape="547.88,710.07 552.85,708.22 554.50,708.29"/>
    </edge>
    <edge id=":42434262_30" function="internal">
        <lane id=":42434262_30_0" index="0" speed="9.85" length="13.32" shape="556.06,707.44 559.32,707.26 563.62,709.19 566.98,713.35"/>
    </edge>
    <edge id=":42434262_31" function="internal">
        <lane id=":42434262_31_0" index="0" speed="9.26" length="12.41" shape="554.50,708.29 557.22,708.41 560.99,710.63 564.17,714.88"/>
    </edge>
    <edge id=":42434338_0" function="internal">
        <lane id=":42434338_0_0" index="0" disallow="tram rail_urban rail rail_electric ship" speed="6.50" length="9.03" shape="829.23,933.36 827.78,931.36 826.03,930.31 823.99,930.20 821.67,931.05"/>
    </edge>
    <edge id=":42434338_1" function="internal">
        <lane id=":42434338_1_0" index="0" disallow="tram rail_urban rail rail_electric ship" speed="22.22" length="11.21" shape="829.23,933.36 823.95,923.47"/>
    </edge>
    <edge id=":42434338_2" function="internal">
        <lane id=":42434338_2_0" index="0" disallow="tram rail_urban rail rail_electric ship" speed="6.53" length="9.06" shape="834.36,924.25 832.37,925.72 831.32,927.48 831.22,929.52 832.06,931.86"/>
    </edge>
    <edge id=":42434338_3" function="internal">
        <lane id=":42434338_3_0" index="0" disallow="tram rail_urban rail rail_electric ship" speed="13.89" length="14.40" shape="834.36,924.25 821.67,931.05"/>
    </edge>
    <edge id=":42434338_4" function="internal">
        <lane id=":42434338_4_0" index="0" disallow="tram rail_urban rail rail_electric ship" speed="7.33" length="11.73" shape="834.36,924.25 830.81,925.76 827.88,926.13 825.60,925.37 823.95,923.47"/>
    </edge>
    <edge id=":42434338_5" function="internal">
        <lane id=":42434338_5_0" index="0" disallow="tram rail_urban rail rail_electric ship" speed="22.22" length="11.23" shape="826.77,921.95 832.06,931.86"/>
    </edge>
    <edge id=":42434338_6" function="internal">
        <lane id=":42434338_6_0" index="0" disallow="tram rail_urban rail rail_electric ship" speed="7.32" length="4.06" shape="826.77,921.95 827.45,924.38 827.05,925.87"/>
    </edge>
    <edge id=":42434338_7" function="internal">
        <lane id=":42434338_7_0" index="0" speed="7.32" length="7.67" shape="827.05,925.87 826.82,926.70 824.90,928.93 821.67,931.05"/>
    </edge>
    <edge id=":42434340_0" function="internal">
        <lane id=":42434340_0_0" index="0" disallow="tram rail_urban rail rail_electric ship" speed="6.52" length="9.07" shape="709.70,997.41 708.22,995.41 706.46,994.36 704.42,994.26 702.09,995.10"/>
    </edge>
    <edge id=":42434340_1" function="internal">
        <lane id=":42434340_1_0" index="0" disallow="tram rail_urban rail rail_electric ship" speed="27.78" length="11.24" shape="709.70,997.41 704.37,987.52"/>
        <lane id=":42434340_1_1" index="1" disallow="tram rail_urban rail rail_electric ship" speed="27.78" length="11.24" shape="712.52,995.89 707.19,986.01"/>
    </edge>
    <edge id=":42434340_3" function="internal">
        <lane id=":42434340_3_0" index="0" disallow="tram rail_urban rail rail_electric ship" speed="6.50" length="9.03" shape="720.43,985.28 718.44,986.74 717.39,988.50 717.30,990.53 718.15,992.86"/>
    </edge>
    <edge id=":42434340_4" function="internal">
        <lane id=":42434340_4_0" index="0" disallow="tram rail_urban rail rail_electric ship" speed="7.32" length="11.73" shape="720.43,985.28 717.20,987.40 715.28,989.63 714.65,991.95 715.33,994.38"/>
    </edge>
    <edge id=":42434340_5" function="internal">
        <lane id=":42434340_5_0" index="0" disallow="tram rail_urban rail rail_electric ship" speed="13.89" length="20.81" shape="720.43,985.28 702.09,995.10"/>
    </edge>
    <edge id=":42434340_6" function="internal">
        <lane id=":42434340_6_0" index="0" disallow="tram rail_urban rail rail_electric ship" speed="8.84" length="17.51" shape="720.43,985.28 714.40,988.11 709.71,989.43 706.37,989.23 704.37,987.52"/>
    </edge>
    <edge id=":42434340_7" function="internal">
        <lane id=":42434340_7_0" index="0" disallow="tram rail_urban rail rail_electric ship" speed="8.11" length="14.59" shape="720.43,985.28 715.64,987.45 711.83,988.29 709.01,987.81 707.19,986.01"/>
    </edge>
    <edge id=":42434340_8" function="internal">
        <lane id=":42434340_8_0" index="0" disallow="tram rail_urban rail rail_electric ship" speed="27.78" length="11.23" shape="712.82,982.97 718.15,992.86"/>
        <lane id=":42434340_8_1" index="1" disallow="tram rail_urban rail rail_electric ship" speed="27.78" length="11.23" shape="710.00,984.49 715.33,994.38"/>
    </edge>
    <edge id=":42434340_10" function="internal">
        <lane id=":42434340_10_0" index="0" disallow="tram rail_urban rail rail_electric ship" speed="8.09" length="3.65" shape="710.00,984.49 710.51,987.01 710.07,987.99"/>
    </edge>
    <edge id=":42434340_11" function="internal">
        <lane id=":42434340_11_0" index="0" speed="8.09" length="10.93" shape="710.07,987.99 709.36,989.61 706.55,992.31 702.09,995.10"/>
    </edge>
    <edge id=":42438024_0" function="internal">
        <lane id=":42438024_0_0" index="0" disallow="tram rail_urban rail rail_electric ship" speed="27.78" length="11.07" shape="897.69,1346.07 892.44,1336.33"/>